<?xml version="1.0" encoding="UTF-8"?>

<configuration xmlns:xsi="http://www.w3.org/2001/XMLSchema-instance" xsi:noNamespaceSchemaLocation="http://sumo.dlr.de/xsd/sumoConfiguration.xsd">

    <input>
        <net-file value="eichstaedt.net.xml"/>
		<gui-settings-file value="eichstaedt.settings.xml"/>
    </input>

    <time>
        <begin value="0"/>
        <end value="200"/>
    </time>

    <processing>
        <time-to-teleport value="120"/> <!-- disables the automatic removal of vehicles which wait too long in front of an intersection -->
    </processing>

</configuration>
