<?xml version="1.0" encoding="UTF-8"?>

<!-- generated on 01.01.2017 21:16:39 by Netedit Version 0.28.0
<?xml version="1.0" encoding="UTF-8"?>

<configuration xmlns:xsi="http://www.w3.org/2001/XMLSchema-instance" xsi:noNamespaceSchemaLocation="http://sumo.dlr.de/xsd/netedit.exeConfiguration.xsd">

    <input>
        <sumo-net-file value="C:\Cloud\Dropbox\Coding\MA\SUMOS\app\map\eichstaedt.net.xml"/>
    </input>

    <output>
        <output-file value="C:\Cloud\Dropbox\Coding\MA\SUMOS\app\map\eichstaedt.net.xml"/>
    </output>

    <processing>
        <no-turnarounds value="true"/>
        <offset.disable-normalization value="true"/>
        <lefthand value="false"/>
        <junctions.corner-detail value="0"/>
    </processing>

</configuration>
-->

<net version="0.27" xmlns:xsi="http://www.w3.org/2001/XMLSchema-instance" xsi:noNamespaceSchemaLocation="http://sumo.dlr.de/xsd/net_file.xsd">

    <location netOffset="-658084.21,-5415927.80" convBoundary="0.00,0.00,4486.57,2974.44" origBoundary="11.156879,48.875046,11.217326,48.902666" projParameter="+proj=utm +zone=32 +ellps=WGS84 +datum=WGS84 +units=m +no_defs"/>

    <edge id=":1_0" function="internal">
        <lane id=":1_0_0" index="0" speed="8.00" length="12.91" shape="420.14,831.89 419.87,827.90 420.95,825.68 423.37,825.24 427.14,826.57"/>
    </edge>
    <edge id=":1_1" function="internal">
        <lane id=":1_1_0" index="0" speed="8.00" length="4.22" shape="425.67,829.52 424.44,829.09 423.65,829.23 423.29,829.96 423.38,831.26"/>
    </edge>
    <edge id=":1_2" function="internal">
        <lane id=":1_2_0" index="0" speed="8.00" length="4.82" shape="425.67,829.52 424.93,828.23 424.93,827.31 425.66,826.75 427.14,826.57"/>
    </edge>
    <edge id=":10_0" function="internal">
        <lane id=":10_0_0" index="0" speed="13.89" length="4.82" shape="129.86,1970.22 130.64,1968.96 131.45,1968.51 132.29,1968.89 133.16,1970.10"/>
    </edge>
    <edge id=":1023_0" function="internal">
        <lane id=":1023_0_0" index="0" speed="13.89" length="4.90" shape="957.32,2026.00 956.31,2025.14 955.25,2024.77 954.14,2024.90 952.97,2025.54"/>
    </edge>
    <edge id=":1023_1" function="internal">
        <lane id=":1023_1_0" index="0" speed="9.95" length="3.56" shape="957.32,2026.00 955.84,2023.92 955.49,2022.98"/>
    </edge>
    <edge id=":1023_2" function="internal">
        <lane id=":1023_2_0" index="0" speed="13.89" length="2.20" shape="957.32,2026.00 957.12,2024.53 957.39,2023.87"/>
    </edge>
    <edge id=":1023_9" function="internal">
        <lane id=":1023_9_0" index="0" speed="9.95" length="5.56" shape="955.49,2022.98 955.05,2021.82 954.97,2019.71 955.58,2017.59"/>
    </edge>
    <edge id=":1023_10" function="internal">
        <lane id=":1023_10_0" index="0" speed="13.89" length="2.62" shape="957.39,2023.87 957.47,2023.67 958.36,2023.44 959.80,2023.82"/>
    </edge>
    <edge id=":1023_3" function="internal">
        <lane id=":1023_3_0" index="0" speed="9.95" length="5.32" shape="958.58,2018.95 958.27,2020.12 958.37,2021.32 958.88,2022.56 959.80,2023.82"/>
    </edge>
    <edge id=":1023_4" function="internal">
        <lane id=":1023_4_0" index="0" speed="9.95" length="8.82" shape="958.58,2018.95 957.45,2021.28 956.42,2022.76 955.07,2023.98 952.97,2025.54"/>
    </edge>
    <edge id=":1023_5" function="internal">
        <lane id=":1023_5_0" index="0" speed="6.00" length="4.82" shape="958.58,2018.95 957.32,2019.74 956.40,2019.78 955.82,2019.06 955.58,2017.59"/>
    </edge>
    <edge id=":1023_6" function="internal">
        <lane id=":1023_6_0" index="0" speed="9.95" length="7.12" shape="951.01,2022.88 952.71,2021.63 953.81,2020.65 954.65,2019.47 955.58,2017.59"/>
    </edge>
    <edge id=":1023_7" function="internal">
        <lane id=":1023_7_0" index="0" speed="13.89" length="9.89" shape="951.01,2022.88 953.37,2021.60 955.62,2021.34 957.76,2022.08 959.80,2023.82"/>
    </edge>
    <edge id=":1023_8" function="internal">
        <lane id=":1023_8_0" index="0" speed="13.89" length="2.69" shape="951.01,2022.88 952.50,2022.81 953.32,2023.23 953.37,2023.50"/>
    </edge>
    <edge id=":1023_11" function="internal">
        <lane id=":1023_11_0" index="0" speed="13.89" length="2.13" shape="953.37,2023.50 953.48,2024.14 952.97,2025.54"/>
    </edge>
    <edge id=":1030_0" function="internal">
        <lane id=":1030_0_0" index="0" speed="4.17" length="10.10" shape="978.66,2072.59 971.75,2079.97"/>
    </edge>
    <edge id=":1030_1" function="internal">
        <lane id=":1030_1_0" index="0" speed="1.39" length="5.79" shape="978.66,2072.59 975.84,2074.91 973.74,2075.35"/>
    </edge>
    <edge id=":1030_2" function="internal">
        <lane id=":1030_2_0" index="0" speed="1.39" length="2.41" shape="978.66,2072.59 977.21,2072.95 976.32,2072.69"/>
    </edge>
    <edge id=":1030_9" function="internal">
        <lane id=":1030_9_0" index="0" speed="1.39" length="6.72" shape="973.74,2075.35 973.29,2075.45 971.00,2074.20 968.97,2071.17"/>
    </edge>
    <edge id=":1030_10" function="internal">
        <lane id=":1030_10_0" index="0" speed="1.39" length="2.41" shape="976.32,2072.69 975.99,2071.83 976.22,2070.36"/>
    </edge>
    <edge id=":1030_3" function="internal">
        <lane id=":1030_3_0" index="0" speed="1.39" length="5.54" shape="971.94,2069.73 972.83,2071.07 973.85,2071.62 974.98,2071.39 976.22,2070.36"/>
    </edge>
    <edge id=":1030_4" function="internal">
        <lane id=":1030_4_0" index="0" speed="4.17" length="10.92" shape="971.94,2069.73 973.14,2072.88 973.51,2075.64 973.05,2078.00 971.75,2079.97"/>
    </edge>
    <edge id=":1030_5" function="internal">
        <lane id=":1030_5_0" index="0" speed="1.39" length="4.82" shape="971.94,2069.73 971.73,2071.20 971.17,2071.94 970.25,2071.92 968.97,2071.17"/>
    </edge>
    <edge id=":1030_6" function="internal">
        <lane id=":1030_6_0" index="0" speed="4.17" length="6.89" shape="969.38,2077.67 970.04,2076.56 970.19,2075.11 969.83,2073.31 968.97,2071.17"/>
    </edge>
    <edge id=":1030_7" function="internal">
        <lane id=":1030_7_0" index="0" speed="4.17" length="10.01" shape="969.38,2077.67 976.22,2070.36"/>
    </edge>
    <edge id=":1030_8" function="internal">
        <lane id=":1030_8_0" index="0" speed="6.94" length="2.41" shape="969.38,2077.67 970.83,2077.36 971.71,2077.63"/>
    </edge>
    <edge id=":1030_11" function="internal">
        <lane id=":1030_11_0" index="0" speed="6.94" length="2.41" shape="971.71,2077.63 972.02,2078.50 971.75,2079.97"/>
    </edge>
    <edge id=":1076_0" function="internal">
        <lane id=":1076_0_0" index="0" speed="8.33" length="9.17" shape="1074.26,1989.68 1065.57,1992.61"/>
    </edge>
    <edge id=":1076_1" function="internal">
        <lane id=":1076_1_0" index="0" speed="7.63" length="5.61" shape="1074.26,1989.68 1070.71,1990.12 1068.80,1989.41"/>
    </edge>
    <edge id=":1076_2" function="internal">
        <lane id=":1076_2_0" index="0" speed="8.33" length="2.41" shape="1074.26,1989.68 1072.85,1989.21 1072.24,1988.52"/>
    </edge>
    <edge id=":1076_9" function="internal">
        <lane id=":1076_9_0" index="0" speed="7.63" length="6.70" shape="1068.80,1989.41 1068.29,1989.22 1066.98,1986.98 1066.79,1983.42"/>
    </edge>
    <edge id=":1076_10" function="internal">
        <lane id=":1076_10_0" index="0" speed="8.33" length="2.41" shape="1072.24,1988.52 1072.42,1987.61 1073.40,1986.49"/>
    </edge>
    <edge id=":1076_3" function="internal">
        <lane id=":1076_3_0" index="0" speed="7.63" length="5.49" shape="1070.08,1983.70 1070.16,1985.29 1070.74,1986.29 1071.83,1986.69 1073.40,1986.49"/>
    </edge>
    <edge id=":1076_4" function="internal">
        <lane id=":1076_4_0" index="0" speed="7.63" length="10.42" shape="1070.08,1983.70 1069.56,1986.91 1068.64,1989.46 1067.31,1991.36 1065.57,1992.61"/>
    </edge>
    <edge id=":1076_5" function="internal">
        <lane id=":1076_5_0" index="0" speed="6.94" length="4.82" shape="1070.08,1983.70 1069.15,1984.87 1068.29,1985.21 1067.50,1984.72 1066.79,1983.42"/>
    </edge>
    <edge id=":1076_6" function="internal">
        <lane id=":1076_6_0" index="0" speed="7.63" length="7.00" shape="1064.16,1989.63 1065.14,1988.85 1065.91,1987.56 1066.46,1985.75 1066.79,1983.42"/>
    </edge>
    <edge id=":1076_7" function="internal">
        <lane id=":1076_7_0" index="0" speed="8.33" length="9.79" shape="1064.16,1989.63 1066.80,1988.44 1068.67,1987.75 1070.59,1987.22 1073.40,1986.49"/>
    </edge>
    <edge id=":1076_8" function="internal">
        <lane id=":1076_8_0" index="0" speed="8.33" length="2.66" shape="1064.16,1989.63 1065.63,1989.85 1066.35,1990.41 1066.35,1990.66"/>
    </edge>
    <edge id=":1076_11" function="internal">
        <lane id=":1076_11_0" index="0" speed="8.33" length="2.16" shape="1066.35,1990.66 1066.33,1991.34 1065.57,1992.61"/>
    </edge>
    <edge id=":1084_0" function="internal">
        <lane id=":1084_0_0" index="0" speed="1.39" length="4.82" shape="1018.93,2038.01 1020.41,2038.18 1021.15,2038.73 1021.16,2039.65 1020.43,2040.95"/>
    </edge>
    <edge id=":1090_0" function="internal">
        <lane id=":1090_0_0" index="0" speed="4.86" length="0.10" shape="1161.89,2029.06 1161.82,2029.10"/>
    </edge>
    <edge id=":1090_1" function="internal">
        <lane id=":1090_1_0" index="0" speed="8.33" length="2.41" shape="1161.89,2029.06 1160.40,2029.13 1159.58,2028.71"/>
    </edge>
    <edge id=":1090_4" function="internal">
        <lane id=":1090_4_0" index="0" speed="8.33" length="2.41" shape="1159.58,2028.71 1159.42,2027.80 1159.93,2026.40"/>
    </edge>
    <edge id=":1090_2" function="internal">
        <lane id=":1090_2_0" index="0" speed="4.86" length="0.10" shape="1160.00,2026.36 1159.93,2026.40"/>
    </edge>
    <edge id=":1090_3" function="internal">
        <lane id=":1090_3_0" index="0" speed="1.39" length="2.41" shape="1160.00,2026.36 1161.48,2026.36 1162.28,2026.82"/>
    </edge>
    <edge id=":1090_5" function="internal">
        <lane id=":1090_5_0" index="0" speed="1.39" length="2.41" shape="1162.28,2026.82 1162.40,2027.73 1161.82,2029.10"/>
    </edge>
    <edge id=":1096_0" function="internal">
        <lane id=":1096_0_0" index="0" speed="13.89" length="9.99" shape="404.64,2114.03 403.00,2123.88"/>
    </edge>
    <edge id=":1096_1" function="internal">
        <lane id=":1096_1_0" index="0" speed="13.89" length="5.71" shape="404.64,2114.03 403.61,2117.41 402.09,2118.98"/>
    </edge>
    <edge id=":1096_2" function="internal">
        <lane id=":1096_2_0" index="0" speed="13.89" length="2.41" shape="404.64,2114.03 403.63,2115.12 402.75,2115.41"/>
    </edge>
    <edge id=":1096_9" function="internal">
        <lane id=":1096_9_0" index="0" speed="13.89" length="6.52" shape="402.09,2118.98 401.81,2119.27 399.25,2119.59 395.93,2118.37"/>
    </edge>
    <edge id=":1096_10" function="internal">
        <lane id=":1096_10_0" index="0" speed="13.89" length="2.41" shape="402.75,2115.41 402.00,2114.87 401.37,2113.52"/>
    </edge>
    <edge id=":1096_3" function="internal">
        <lane id=":1096_3_0" index="0" speed="13.89" length="5.46" shape="397.49,2115.46 398.97,2116.00 400.11,2115.86 400.91,2115.03 401.37,2113.52"/>
    </edge>
    <edge id=":1096_4" function="internal">
        <lane id=":1096_4_0" index="0" speed="13.89" length="10.80" shape="397.49,2115.46 400.24,2117.27 402.08,2119.28 403.00,2121.48 403.00,2123.88"/>
    </edge>
    <edge id=":1096_5" function="internal">
        <lane id=":1096_5_0" index="0" speed="13.89" length="4.82" shape="397.49,2115.46 398.19,2116.77 398.16,2117.69 397.41,2118.23 395.93,2118.37"/>
    </edge>
    <edge id=":1096_6" function="internal">
        <lane id=":1096_6_0" index="0" speed="13.89" length="6.64" shape="399.76,2123.29 399.70,2122.00 399.04,2120.75 397.78,2119.54 395.93,2118.37"/>
    </edge>
    <edge id=":1096_7" function="internal">
        <lane id=":1096_7_0" index="0" speed="13.89" length="9.90" shape="399.76,2123.29 401.37,2113.52"/>
    </edge>
    <edge id=":1096_8" function="internal">
        <lane id=":1096_8_0" index="0" speed="13.89" length="2.41" shape="399.76,2123.29 400.79,2122.22 401.67,2121.96"/>
    </edge>
    <edge id=":1096_11" function="internal">
        <lane id=":1096_11_0" index="0" speed="13.89" length="2.41" shape="401.67,2121.96 402.41,2122.52 403.00,2123.88"/>
    </edge>
    <edge id=":1102_0" function="internal">
        <lane id=":1102_0_0" index="0" speed="7.64" length="5.27" shape="394.66,2159.88 394.23,2158.71 393.45,2157.81 392.31,2157.19 390.81,2156.85"/>
    </edge>
    <edge id=":1102_1" function="internal">
        <lane id=":1102_1_0" index="0" speed="13.89" length="8.99" shape="394.66,2159.88 394.21,2157.26 394.09,2155.43 394.28,2153.60 394.74,2150.98"/>
    </edge>
    <edge id=":1102_2" function="internal">
        <lane id=":1102_2_0" index="0" speed="13.89" length="2.41" shape="394.66,2159.88 395.24,2158.50 395.97,2157.94"/>
    </edge>
    <edge id=":1102_9" function="internal">
        <lane id=":1102_9_0" index="0" speed="13.89" length="2.41" shape="395.97,2157.94 396.86,2158.19 397.90,2159.25"/>
    </edge>
    <edge id=":1102_3" function="internal">
        <lane id=":1102_3_0" index="0" speed="13.89" length="7.77" shape="397.99,2151.56 397.58,2153.83 397.42,2155.41 397.51,2156.99 397.90,2159.25"/>
    </edge>
    <edge id=":1102_4" function="internal">
        <lane id=":1102_4_0" index="0" speed="7.64" length="4.91" shape="397.99,2151.56 397.13,2154.16 395.72,2155.82"/>
    </edge>
    <edge id=":1102_5" function="internal">
        <lane id=":1102_5_0" index="0" speed="13.89" length="2.41" shape="397.99,2151.56 396.96,2152.64 396.07,2152.89"/>
    </edge>
    <edge id=":1102_10" function="internal">
        <lane id=":1102_10_0" index="0" speed="7.64" length="5.13" shape="395.72,2155.82 395.65,2155.90 393.54,2156.80 390.81,2156.85"/>
    </edge>
    <edge id=":1102_11" function="internal">
        <lane id=":1102_11_0" index="0" speed="13.89" length="2.41" shape="396.07,2152.89 395.33,2152.34 394.74,2150.98"/>
    </edge>
    <edge id=":1102_6" function="internal">
        <lane id=":1102_6_0" index="0" speed="7.64" length="4.93" shape="391.21,2153.57 392.56,2153.55 393.59,2153.11 394.32,2152.25 394.74,2150.98"/>
    </edge>
    <edge id=":1102_7" function="internal">
        <lane id=":1102_7_0" index="0" speed="7.64" length="9.45" shape="391.21,2153.57 393.78,2154.19 395.75,2155.35 397.12,2157.03 397.90,2159.25"/>
    </edge>
    <edge id=":1102_8" function="internal">
        <lane id=":1102_8_0" index="0" speed="1.39" length="4.82" shape="391.21,2153.57 392.34,2154.54 392.65,2155.41 392.14,2156.18 390.81,2156.85"/>
    </edge>
    <edge id=":1103_0" function="internal">
        <lane id=":1103_0_0" index="0" speed="11.11" length="6.07" shape="408.71,2231.54 408.09,2229.77 407.20,2228.59 406.05,2228.01 404.62,2228.01"/>
    </edge>
    <edge id=":1103_1" function="internal">
        <lane id=":1103_1_0" index="0" speed="13.89" length="10.64" shape="408.71,2231.54 406.47,2221.14"/>
    </edge>
    <edge id=":1103_2" function="internal">
        <lane id=":1103_2_0" index="0" speed="10.42" length="5.71" shape="408.71,2231.54 408.41,2228.15 409.26,2226.01"/>
    </edge>
    <edge id=":1103_3" function="internal">
        <lane id=":1103_3_0" index="0" speed="13.89" length="2.41" shape="408.71,2231.54 409.23,2230.15 409.94,2229.56"/>
    </edge>
    <edge id=":1103_16" function="internal">
        <lane id=":1103_16_0" index="0" speed="10.42" length="6.17" shape="409.26,2226.01 409.34,2225.79 411.50,2224.46 414.88,2224.14"/>
    </edge>
    <edge id=":1103_17" function="internal">
        <lane id=":1103_17_0" index="0" speed="13.89" length="2.41" shape="409.94,2229.56 410.84,2229.77 411.92,2230.79"/>
    </edge>
    <edge id=":1103_4" function="internal">
        <lane id=":1103_4_0" index="0" speed="10.42" length="5.38" shape="414.72,2227.44 413.19,2227.58 412.21,2228.19 411.79,2229.26 411.92,2230.79"/>
    </edge>
    <edge id=":1103_5" function="internal">
        <lane id=":1103_5_0" index="0" speed="7.63" length="10.16" shape="414.72,2227.44 411.72,2227.29 409.64,2227.28 407.57,2227.49 404.62,2228.01"/>
    </edge>
    <edge id=":1103_6" function="internal">
        <lane id=":1103_6_0" index="0" speed="10.42" length="11.30" shape="414.72,2227.44 411.54,2226.91 409.10,2225.69 407.41,2223.76 406.47,2221.14"/>
    </edge>
    <edge id=":1103_7" function="internal">
        <lane id=":1103_7_0" index="0" speed="6.94" length="4.82" shape="414.72,2227.44 413.52,2226.55 413.15,2225.71 413.61,2224.91 414.88,2224.14"/>
    </edge>
    <edge id=":1103_8" function="internal">
        <lane id=":1103_8_0" index="0" speed="10.42" length="6.87" shape="409.71,2220.51 410.28,2222.02 411.33,2223.12 412.87,2223.83 414.88,2224.14"/>
    </edge>
    <edge id=":1103_9" function="internal">
        <lane id=":1103_9_0" index="0" speed="13.89" length="10.51" shape="409.71,2220.51 411.92,2230.79"/>
    </edge>
    <edge id=":1103_10" function="internal">
        <lane id=":1103_10_0" index="0" speed="11.11" length="5.17" shape="409.71,2220.51 409.85,2223.34 409.04,2225.54"/>
    </edge>
    <edge id=":1103_11" function="internal">
        <lane id=":1103_11_0" index="0" speed="13.89" length="2.41" shape="409.71,2220.51 409.13,2221.88 408.40,2222.45"/>
    </edge>
    <edge id=":1103_18" function="internal">
        <lane id=":1103_18_0" index="0" speed="11.11" length="5.17" shape="409.04,2225.54 407.30,2227.09 404.62,2228.01"/>
    </edge>
    <edge id=":1103_19" function="internal">
        <lane id=":1103_19_0" index="0" speed="13.89" length="2.41" shape="408.40,2222.45 407.51,2222.20 406.47,2221.14"/>
    </edge>
    <edge id=":1103_12" function="internal">
        <lane id=":1103_12_0" index="0" speed="11.11" length="5.00" shape="404.01,2224.77 405.30,2224.32 406.15,2223.57 406.54,2222.51 406.47,2221.14"/>
    </edge>
    <edge id=":1103_13" function="internal">
        <lane id=":1103_13_0" index="0" speed="7.63" length="10.94" shape="404.01,2224.77 407.08,2224.24 409.41,2224.01 411.77,2224.00 414.88,2224.14"/>
    </edge>
    <edge id=":1103_14" function="internal">
        <lane id=":1103_14_0" index="0" speed="11.11" length="11.22" shape="404.01,2224.77 406.84,2224.70 409.10,2225.68 410.80,2227.71 411.92,2230.79"/>
    </edge>
    <edge id=":1103_15" function="internal">
        <lane id=":1103_15_0" index="0" speed="8.33" length="4.82" shape="404.01,2224.77 405.38,2225.35 405.93,2226.08 405.68,2226.97 404.62,2228.01"/>
    </edge>
    <edge id=":1104_0" function="internal">
        <lane id=":1104_0_0" index="0" speed="6.94" length="8.30" shape="447.89,2230.15 445.54,2229.44 443.90,2229.04 442.22,2228.84 439.76,2228.70"/>
    </edge>
    <edge id=":1104_1" function="internal">
        <lane id=":1104_1_0" index="0" speed="6.94" length="9.77" shape="447.89,2230.15 445.50,2229.03 443.95,2227.40 443.24,2225.27 443.38,2222.63"/>
    </edge>
    <edge id=":1104_2" function="internal">
        <lane id=":1104_2_0" index="0" speed="6.94" length="4.82" shape="447.89,2230.15 446.95,2228.99 446.80,2228.08 447.44,2227.42 448.87,2227.00"/>
    </edge>
    <edge id=":1104_3" function="internal">
        <lane id=":1104_3_0" index="0" speed="6.94" length="4.87" shape="446.62,2223.25 446.55,2224.56 446.90,2225.63 447.68,2226.44 448.87,2227.00"/>
    </edge>
    <edge id=":1104_4" function="internal">
        <lane id=":1104_4_0" index="0" speed="6.94" length="9.71" shape="446.62,2223.25 445.78,2225.74 444.36,2227.48 442.35,2228.47 439.76,2228.70"/>
    </edge>
    <edge id=":1104_5" function="internal">
        <lane id=":1104_5_0" index="0" speed="6.94" length="4.82" shape="446.62,2223.25 445.57,2224.31 444.69,2224.56 443.95,2224.00 443.38,2222.63"/>
    </edge>
    <edge id=":1104_6" function="internal">
        <lane id=":1104_6_0" index="0" speed="6.94" length="4.90" shape="439.93,2225.40 441.23,2225.29 442.24,2224.78 442.95,2223.90 443.38,2222.63"/>
    </edge>
    <edge id=":1104_7" function="internal">
        <lane id=":1104_7_0" index="0" speed="6.94" length="9.12" shape="439.93,2225.40 442.63,2225.56 444.47,2225.78 446.28,2226.21 448.87,2227.00"/>
    </edge>
    <edge id=":1104_8" function="internal">
        <lane id=":1104_8_0" index="0" speed="6.94" length="4.82" shape="439.93,2225.40 441.12,2226.29 441.49,2227.14 441.04,2227.94 439.76,2228.70"/>
    </edge>
    <edge id=":1108_0" function="internal">
        <lane id=":1108_0_0" index="0" speed="6.94" length="1.90" shape="483.58,2242.23 483.48,2241.74 483.25,2241.35 482.91,2241.05 482.46,2240.84"/>
    </edge>
    <edge id=":1108_1" function="internal">
        <lane id=":1108_1_0" index="0" speed="6.94" length="2.08" shape="483.58,2242.23 484.29,2240.92 484.80,2240.61"/>
    </edge>
    <edge id=":1108_4" function="internal">
        <lane id=":1108_4_0" index="0" speed="6.94" length="2.73" shape="484.80,2240.61 485.08,2240.44 485.94,2240.77 486.87,2241.93"/>
    </edge>
    <edge id=":1108_2" function="internal">
        <lane id=":1108_2_0" index="0" speed="6.94" length="5.82" shape="483.44,2237.69 484.83,2238.32 485.86,2239.24 486.54,2240.44 486.87,2241.93"/>
    </edge>
    <edge id=":1108_3" function="internal">
        <lane id=":1108_3_0" index="0" speed="6.94" length="2.85" shape="483.44,2237.69 484.37,2238.84 484.52,2239.75 484.22,2240.07"/>
    </edge>
    <edge id=":1108_5" function="internal">
        <lane id=":1108_5_0" index="0" speed="6.94" length="1.97" shape="484.22,2240.07 483.89,2240.42 482.46,2240.84"/>
    </edge>
    <edge id=":1111_0" function="internal">
        <lane id=":1111_0_0" index="0" speed="11.11" length="5.45" shape="451.02,2342.36 450.09,2341.08 449.07,2340.56 447.94,2340.79 446.71,2341.78"/>
    </edge>
    <edge id=":1111_1" function="internal">
        <lane id=":1111_1_0" index="0" speed="13.89" length="9.97" shape="451.02,2342.36 445.92,2333.79"/>
    </edge>
    <edge id=":1111_2" function="internal">
        <lane id=":1111_2_0" index="0" speed="13.89" length="2.41" shape="451.02,2342.36 451.17,2340.88 451.70,2340.13"/>
    </edge>
    <edge id=":1111_9" function="internal">
        <lane id=":1111_9_0" index="0" speed="13.89" length="2.41" shape="451.70,2340.13 452.63,2340.11 453.93,2340.82"/>
    </edge>
    <edge id=":1111_3" function="internal">
        <lane id=":1111_3_0" index="0" speed="13.89" length="10.38" shape="448.62,2331.90 453.93,2340.82"/>
    </edge>
    <edge id=":1111_4" function="internal">
        <lane id=":1111_4_0" index="0" speed="11.11" length="5.23" shape="448.62,2331.90 449.68,2334.20 449.72,2336.61 449.62,2336.88"/>
    </edge>
    <edge id=":1111_5" function="internal">
        <lane id=":1111_5_0" index="0" speed="13.89" length="2.59" shape="448.62,2331.90 448.66,2333.39 448.22,2334.20 448.04,2334.22"/>
    </edge>
    <edge id=":1111_10" function="internal">
        <lane id=":1111_10_0" index="0" speed="11.11" length="5.75" shape="449.62,2336.88 448.73,2339.14 446.71,2341.78"/>
    </edge>
    <edge id=":1111_11" function="internal">
        <lane id=":1111_11_0" index="0" speed="13.89" length="2.23" shape="448.04,2334.22 447.31,2334.33 445.92,2333.79"/>
    </edge>
    <edge id=":1111_6" function="internal">
        <lane id=":1111_6_0" index="0" speed="11.11" length="6.44" shape="444.30,2339.51 445.61,2337.87 446.32,2336.37 446.42,2335.01 445.92,2333.79"/>
    </edge>
    <edge id=":1111_7" function="internal">
        <lane id=":1111_7_0" index="0" speed="11.11" length="12.19" shape="444.30,2339.51 447.05,2337.31 449.57,2336.80 451.87,2337.96 453.93,2340.82"/>
    </edge>
    <edge id=":1111_8" function="internal">
        <lane id=":1111_8_0" index="0" speed="8.33" length="4.82" shape="444.30,2339.51 445.75,2339.18 446.64,2339.44 446.96,2340.31 446.71,2341.78"/>
    </edge>
    <edge id=":1121_0" function="internal">
        <lane id=":1121_0_0" index="0" speed="13.89" length="4.43" shape="726.81,2145.30 726.34,2144.00 725.71,2143.46 724.92,2143.70 723.97,2144.72"/>
    </edge>
    <edge id=":1121_1" function="internal">
        <lane id=":1121_1_0" index="0" speed="13.89" length="4.82" shape="726.81,2145.30 727.34,2143.90 728.04,2143.31 728.94,2143.53 730.03,2144.54"/>
    </edge>
    <edge id=":1121_2" function="internal">
        <lane id=":1121_2_0" index="0" speed="13.89" length="13.56" shape="721.31,2142.76 724.21,2139.66 726.63,2138.93 728.57,2140.55 730.03,2144.54"/>
    </edge>
    <edge id=":1121_3" function="internal">
        <lane id=":1121_3_0" index="0" speed="13.89" length="4.82" shape="721.31,2142.76 722.71,2142.25 723.61,2142.41 724.04,2143.23 723.97,2144.72"/>
    </edge>
    <edge id=":1131_0" function="internal">
        <lane id=":1131_0_0" index="0" speed="7.64" length="0.31" shape="721.66,2208.90 721.63,2209.21"/>
    </edge>
    <edge id=":1131_1" function="internal">
        <lane id=":1131_1_0" index="0" speed="13.89" length="2.41" shape="721.66,2208.90 720.73,2210.07 719.87,2210.41"/>
    </edge>
    <edge id=":1131_4" function="internal">
        <lane id=":1131_4_0" index="0" speed="13.89" length="2.41" shape="719.87,2210.41 719.09,2209.93 718.37,2208.63"/>
    </edge>
    <edge id=":1131_2" function="internal">
        <lane id=":1131_2_0" index="0" speed="7.64" length="0.23" shape="718.35,2208.86 718.37,2208.63"/>
    </edge>
    <edge id=":1131_3" function="internal">
        <lane id=":1131_3_0" index="0" speed="1.39" length="2.41" shape="718.35,2208.86 719.30,2207.72 720.16,2207.39"/>
    </edge>
    <edge id=":1131_5" function="internal">
        <lane id=":1131_5_0" index="0" speed="1.39" length="2.41" shape="720.16,2207.39 720.94,2207.89 721.63,2209.21"/>
    </edge>
    <edge id=":1132_0" function="internal">
        <lane id=":1132_0_0" index="0" speed="10.42" length="9.54" shape="734.84,2163.03 725.37,2164.13"/>
    </edge>
    <edge id=":1132_1" function="internal">
        <lane id=":1132_1_0" index="0" speed="10.42" length="31.90" shape="734.84,2163.03 728.18,2172.34 724.40,2174.79 723.50,2170.37 725.47,2159.10"/>
    </edge>
    <edge id=":1132_2" function="internal">
        <lane id=":1132_2_0" index="0" speed="6.94" length="4.82" shape="734.84,2163.03 733.48,2163.63 732.56,2163.54 732.09,2162.75 732.06,2161.26"/>
    </edge>
    <edge id=":1132_3" function="internal">
        <lane id=":1132_3_0" index="0" speed="10.42" length="11.48" shape="728.68,2159.85 727.97,2163.91 728.30,2165.49 729.66,2164.61 732.06,2161.26"/>
    </edge>
    <edge id=":1132_4" function="internal">
        <lane id=":1132_4_0" index="0" speed="13.89" length="5.62" shape="728.68,2159.85 727.94,2161.25 726.88,2161.97 725.89,2162.70 725.37,2164.13"/>
    </edge>
    <edge id=":1132_5" function="internal">
        <lane id=":1132_5_0" index="0" speed="13.89" length="2.81" shape="728.68,2159.85 727.60,2160.87 726.70,2161.08 726.39,2160.82"/>
    </edge>
    <edge id=":1132_9" function="internal">
        <lane id=":1132_9_0" index="0" speed="13.89" length="2.01" shape="726.39,2160.82 725.99,2160.49 725.47,2159.10"/>
    </edge>
    <edge id=":1132_6" function="internal">
        <lane id=":1132_6_0" index="0" speed="13.89" length="6.03" shape="722.08,2163.86 722.62,2162.29 723.62,2161.46 724.69,2160.64 725.47,2159.10"/>
    </edge>
    <edge id=":1132_7" function="internal">
        <lane id=":1132_7_0" index="0" speed="10.42" length="11.41" shape="722.08,2163.86 723.43,2161.95 726.22,2162.28 729.42,2162.75 732.06,2161.26"/>
    </edge>
    <edge id=":1132_8" function="internal">
        <lane id=":1132_8_0" index="0" speed="13.89" length="2.85" shape="722.08,2163.86 723.00,2162.70 723.86,2162.35 724.23,2162.58"/>
    </edge>
    <edge id=":1132_10" function="internal">
        <lane id=":1132_10_0" index="0" speed="13.89" length="1.97" shape="724.23,2162.58 724.65,2162.83 725.37,2164.13"/>
    </edge>
    <edge id=":1144_0" function="internal">
        <lane id=":1144_0_0" index="0" speed="8.33" length="5.09" shape="380.37,2490.56 379.13,2489.89 378.00,2489.80 376.98,2490.29 376.06,2491.36"/>
    </edge>
    <edge id=":1144_1" function="internal">
        <lane id=":1144_1_0" index="0" speed="8.33" length="10.26" shape="380.37,2490.56 378.28,2488.56 377.21,2486.40 377.15,2484.09 378.11,2481.63"/>
    </edge>
    <edge id=":1144_2" function="internal">
        <lane id=":1144_2_0" index="0" speed="8.33" length="4.82" shape="380.37,2490.56 379.87,2489.16 380.03,2488.25 380.85,2487.84 382.34,2487.91"/>
    </edge>
    <edge id=":1144_3" function="internal">
        <lane id=":1144_3_0" index="0" speed="8.33" length="5.37" shape="380.97,2483.28 380.50,2484.52 380.58,2485.70 381.19,2486.83 382.34,2487.91"/>
    </edge>
    <edge id=":1144_4" function="internal">
        <lane id=":1144_4_0" index="0" speed="8.33" length="9.46" shape="380.97,2483.28 376.06,2491.36"/>
    </edge>
    <edge id=":1144_5" function="internal">
        <lane id=":1144_5_0" index="0" speed="8.33" length="2.41" shape="380.97,2483.28 379.63,2483.94 378.71,2483.88"/>
    </edge>
    <edge id=":1144_9" function="internal">
        <lane id=":1144_9_0" index="0" speed="8.33" length="2.41" shape="378.71,2483.88 378.21,2483.11 378.11,2481.63"/>
    </edge>
    <edge id=":1144_6" function="internal">
        <lane id=":1144_6_0" index="0" speed="8.33" length="9.33" shape="373.27,2489.60 378.11,2481.63"/>
    </edge>
    <edge id=":1144_7" function="internal">
        <lane id=":1144_7_0" index="0" speed="8.33" length="5.20" shape="373.27,2489.60 375.20,2487.35 377.21,2486.38"/>
    </edge>
    <edge id=":1144_8" function="internal">
        <lane id=":1144_8_0" index="0" speed="8.33" length="2.41" shape="373.27,2489.60 374.63,2488.99 375.55,2489.09"/>
    </edge>
    <edge id=":1144_10" function="internal">
        <lane id=":1144_10_0" index="0" speed="8.33" length="5.50" shape="377.21,2486.38 377.35,2486.32 379.73,2486.50 382.34,2487.91"/>
    </edge>
    <edge id=":1144_11" function="internal">